Version 4
SHEET 1 2124 768
WIRE -64 -160 -128 -160
WIRE 48 -160 16 -160
WIRE 112 -160 48 -160
WIRE 160 -160 112 -160
WIRE 288 -160 160 -160
WIRE 368 -160 288 -160
WIRE 1008 -160 368 -160
WIRE 368 -144 368 -160
WIRE 288 -112 288 -160
WIRE 112 -96 112 -160
WIRE 0 -64 0 -112
WIRE 48 -64 48 -160
WIRE -128 -32 -128 -160
WIRE 240 -32 224 -32
WIRE 912 -32 800 -32
WIRE 48 16 48 0
WIRE 800 16 800 -32
WIRE 1008 16 1008 -160
WIRE 288 32 288 -16
WIRE 336 32 336 16
WIRE 336 32 288 32
WIRE 368 32 368 -80
WIRE 368 32 336 32
WIRE 480 32 368 32
WIRE 544 32 480 32
WIRE 624 32 544 32
WIRE 224 64 224 -32
WIRE 624 64 624 32
WIRE 368 96 368 32
WIRE 720 128 720 16
WIRE 768 128 720 128
WIRE 800 128 800 96
WIRE 800 128 768 128
WIRE 864 128 800 128
WIRE 912 128 912 -32
WIRE 1008 128 1008 96
WIRE 1008 128 912 128
WIRE 1072 128 1072 -48
WIRE 1072 128 1008 128
WIRE -48 144 -48 -112
WIRE 800 144 800 128
WIRE 480 160 480 32
WIRE 1008 160 1008 128
WIRE -128 176 -128 48
WIRE 624 176 624 144
WIRE 864 176 864 128
WIRE 768 208 768 128
WIRE 768 224 768 208
WIRE 960 240 928 240
WIRE 112 256 112 -16
WIRE 368 256 368 176
WIRE 720 256 720 128
WIRE 720 256 672 256
WIRE -48 272 -48 224
WIRE 480 272 480 224
WIRE 624 288 624 272
WIRE 768 304 768 272
WIRE 800 304 800 224
WIRE 864 304 864 240
WIRE 1008 304 1008 256
WIRE 544 384 544 32
WIRE 928 384 928 240
WIRE 928 384 544 384
WIRE 928 416 928 384
WIRE 928 512 928 480
FLAG 368 256 0
FLAG -128 176 0
FLAG 112 256 0
FLAG 0 -64 0
FLAG -48 272 0
FLAG 224 64 0
FLAG 1072 -48 LAMP
FLAG 336 16 CAP
FLAG 48 16 0
FLAG 800 304 0
FLAG 864 304 0
FLAG 480 272 0
FLAG 1008 304 0
FLAG 624 288 0
FLAG 928 512 0
FLAG 768 304 0
FLAG 720 16 Vg2
FLAG 160 -160 Vin
SYMBOL res 352 80 R0
SYMATTR InstName R4
SYMATTR Value 9MEG
SYMBOL cap 352 -144 R0
SYMATTR InstName Bat
SYMATTR Value 100µ
SYMATTR SpiceLine Rser=.05
SYMBOL voltage -128 -48 R0
WINDOW 123 0 0 Left 2
WINDOW 39 24 124 Left 2
SYMATTR SpiceLine Rser=.1
SYMATTR InstName V2
SYMATTR Value {Car_battery}
SYMBOL voltage -48 128 R0
WINDOW 123 0 0 Left 2
WINDOW 39 24 124 Left 2
SYMATTR SpiceLine Rser=10
SYMATTR InstName V3
SYMATTR Value PULSE(0 5 10u 5n 5n 2000 2400)
SYMBOL res 96 -112 R0
SYMATTR InstName R6
SYMATTR Value 100k
SYMBOL sw 32 -160 M270
WINDOW 3 65 36 Left 2
SYMATTR Value MySwitch2
SYMATTR InstName S1
SYMBOL res 992 0 R0
SYMATTR InstName LAMP1
SYMATTR Value 14
SYMBOL nmos 240 -112 R0
SYMATTR InstName M1
SYMATTR Value 2N7002
SYMBOL cap 32 -64 R0
SYMATTR InstName C1
SYMATTR Value .22µ
SYMBOL res 784 0 R0
SYMATTR InstName R1
SYMATTR Value 1k
SYMBOL res 784 128 R0
SYMATTR InstName R5
SYMATTR Value 1MEG
SYMBOL cap 848 176 R0
SYMATTR InstName C2
SYMATTR Value .1µ
SYMBOL cap 464 160 R0
SYMATTR InstName C4
SYMATTR Value .1µ
SYMBOL nmos 960 160 R0
SYMATTR InstName M4
SYMATTR Value FDS6912
SYMBOL res 640 160 R180
WINDOW 0 36 76 Left 2
WINDOW 3 36 40 Left 2
SYMATTR InstName R2
SYMATTR Value 10k
SYMBOL nmos 672 176 M0
SYMATTR InstName M2
SYMATTR Value 2N7002
SYMBOL zener 944 480 R180
WINDOW 0 24 64 Left 2
WINDOW 3 24 0 Left 2
SYMATTR InstName D1
SYMATTR Value UDZV15B
SYMATTR Description Diode
SYMATTR Type diode
SYMBOL zener 784 272 R180
WINDOW 0 24 64 Left 2
WINDOW 3 24 0 Left 2
SYMATTR InstName D2
SYMATTR Value UDZV15B
SYMATTR Description Diode
SYMATTR Type diode
TEXT -48 376 Left 2 !.param Tdel = 10n HYST = .0000001  Car_battery = 12
TEXT -56 328 Left 2 !.model MySwitch2 SW(Ron=.01 Roff=10Meg Vt=2.5 Vh=.05)
TEXT -48 424 Left 2 !.tran 0 4500 0 10m
TEXT -72 520 Left 2 !.step param Car_battery list 12v 40v -12v
TEXT -72 560 Left 2 ;Step load is Nominal Voltage, Load Dump Voltage, and Reverse Voltage
TEXT -200 -376 Left 2 ;CAR Power Switch to LAMP Circuit
